Version 4
SHEET 1 1988 1572
WIRE -1088 -352 -1088 -384
WIRE -944 -352 -944 -384
WIRE -896 -352 -896 -384
WIRE -1040 -336 -1040 -384
WIRE -1024 -336 -1040 -336
WIRE -992 -336 -992 -384
WIRE -992 -336 -1024 -336
WIRE -1024 -320 -1024 -336
WIRE 816 -272 816 -336
WIRE 1056 -272 1056 -304
WIRE 1088 -272 1056 -272
WIRE 1184 -272 1152 -272
WIRE -432 -256 -496 -256
WIRE -160 -256 -432 -256
WIRE -64 -256 -160 -256
WIRE 192 -256 -64 -256
WIRE -64 -192 -64 -256
WIRE -32 -192 -64 -192
WIRE 64 -192 32 -192
WIRE 1056 -192 1056 -272
WIRE 1088 -192 1056 -192
WIRE 1184 -192 1152 -192
WIRE -432 -176 -432 -256
WIRE 672 -160 608 -160
WIRE 816 -160 816 -208
WIRE 816 -160 752 -160
WIRE 992 -160 816 -160
WIRE 992 -128 928 -128
WIRE -160 -112 -160 -256
WIRE 928 -112 928 -128
WIRE 816 -96 816 -160
WIRE 112 -80 -128 -80
WIRE 192 -64 192 -256
WIRE 1376 -64 1184 -64
WIRE 1424 -64 1376 -64
WIRE -64 -48 -64 -192
WIRE -128 -32 -128 -80
WIRE -96 -32 -128 -32
WIRE 0 -16 -32 -16
WIRE 128 -16 80 -16
WIRE 1376 -16 1376 -64
WIRE -432 0 -432 -96
WIRE -240 0 -432 0
WIRE -96 0 -240 0
WIRE 928 0 928 -32
WIRE 992 0 928 0
WIRE -240 32 -240 0
WIRE 672 32 608 32
WIRE 816 32 816 -32
WIRE 816 32 752 32
WIRE 928 32 816 32
WIRE 992 32 928 32
WIRE -160 48 -160 -48
WIRE -64 48 -64 16
WIRE -64 48 -160 48
WIRE 112 64 112 -80
WIRE 192 64 192 32
WIRE 192 64 112 64
WIRE 288 64 192 64
WIRE 352 64 288 64
WIRE 192 80 192 64
WIRE 1056 80 1056 64
WIRE 288 96 288 64
WIRE 1376 96 1376 64
WIRE -1024 128 -1072 128
WIRE -432 128 -432 0
WIRE -240 128 -240 96
WIRE 816 128 816 32
WIRE 928 128 928 32
WIRE 1120 128 1120 16
WIRE 1120 128 928 128
WIRE 1168 128 1120 128
WIRE -1024 160 -1072 160
WIRE -272 160 -400 160
WIRE -1024 192 -1072 192
WIRE 192 192 192 160
WIRE 288 192 288 160
WIRE -1024 208 -1024 192
WIRE -976 208 -1024 208
WIRE -1024 224 -1024 208
WIRE -1024 224 -1072 224
WIRE -240 224 -240 208
WIRE 816 240 816 192
WIRE -1024 256 -1056 256
WIRE -1024 288 -1056 288
WIRE -1024 320 -1056 320
WIRE -432 320 -432 192
WIRE -240 320 -240 288
WIRE -240 320 -432 320
WIRE -64 320 -64 48
WIRE -64 320 -240 320
WIRE -432 336 -432 320
WIRE -1024 352 -1056 352
WIRE -1024 384 -1056 384
WIRE -1024 416 -1056 416
FLAG 608 32 Input_coil-
FLAG 608 -160 Input_coil+
FLAG 816 240 0
FLAG 816 -336 0
FLAG 1168 128 VREF_2_5V
FLAG 1056 80 0
FLAG 1056 -304 5V_VDD
FLAG 1376 96 0
FLAG 1424 -64 A2_ADC
FLAG -1024 128 5V_VDD
FLAG -1024 160 0
FLAG -976 208 ADS1115_I2C
FLAG -1024 256 0
FLAG -1024 416 VREF_2_5V
FLAG -1024 384 A2_ADC
FLAG -1088 -352 5V_VDD_OUT
FLAG -896 -352 0
FLAG 1184 -192 0
FLAG 1184 -272 0
FLAG -1024 -320 ADS1115_I2C
FLAG 352 64 VREF_2_5V
FLAG -496 -256 5V_VDD
FLAG -432 336 0
FLAG 64 -192 0
FLAG 192 192 0
FLAG 288 192 0
SYMBOL ZZZ\\OpAmp\\AD623 1040 -64 R0
WINDOW 0 104 -52 Left 2
SYMATTR InstName U1
SYMBOL res 912 -128 R0
WINDOW 0 -19 112 Left 2
WINDOW 3 24 80 Left 2
SYMATTR InstName R2
SYMATTR Value 200
SYMBOL cap 800 -96 R0
SYMATTR InstName C2
SYMATTR Value 10n
SYMBOL cap 800 -272 R0
SYMATTR InstName C3
SYMATTR Value 1n
SYMBOL cap 800 128 R0
SYMATTR InstName C4
SYMATTR Value 1n
SYMBOL res 1360 -32 R0
SYMATTR InstName R3
SYMATTR Value 56k
SYMBOL cap 1152 -208 R90
WINDOW 0 -1 17 VBottom 2
WINDOW 3 32 32 VTop 2
SYMATTR InstName C5
SYMATTR Value 10µ
SYMBOL cap 1152 -288 R90
WINDOW 0 0 32 VBottom 2
WINDOW 3 32 32 VTop 2
SYMATTR InstName C6
SYMATTR Value 100n
SYMBOL res 768 -176 R90
WINDOW 0 0 56 VBottom 2
WINDOW 3 32 56 VTop 2
SYMATTR InstName R4
SYMATTR Value 100
SYMBOL res 768 16 R90
WINDOW 0 0 56 VBottom 2
WINDOW 3 32 56 VTop 2
SYMATTR InstName R5
SYMATTR Value 100
SYMBOL References\\LM336Z_2_5 -432 160 R0
SYMATTR InstName U5
SYMBOL diode -256 32 R0
SYMATTR InstName D3
SYMATTR Value 1N4148
SYMBOL diode -256 224 R0
SYMATTR InstName D4
SYMATTR Value 1N4148
SYMBOL pot_ -256 112 R0
SYMATTR InstName U6
SYMBOL res -448 -192 R0
SYMATTR InstName R6
SYMATTR Value 2.4k
SYMBOL cap -176 -112 R0
WINDOW 0 -27 10 Left 2
WINDOW 3 -51 54 Left 2
SYMATTR InstName C7
SYMATTR Value 100n
SYMBOL ZZZ\\OpAmp\\OpAmp_ -64 -16 R0
SYMATTR Prefix MCP602
SYMATTR InstName MCP1
SYMBOL cap -32 -176 R270
WINDOW 0 32 32 VTop 2
WINDOW 3 0 32 VBottom 2
SYMATTR InstName C8
SYMATTR Value 100n
SYMBOL npn 128 -64 R0
SYMATTR InstName Q1
SYMATTR Value BC547B
SYMBOL res 96 -32 R90
WINDOW 0 0 56 VBottom 2
WINDOW 3 32 56 VTop 2
SYMATTR InstName R7
SYMATTR Value 100
SYMBOL res 176 64 R0
SYMATTR InstName R8
SYMATTR Value 1k
SYMBOL cap 272 96 R0
SYMATTR InstName C9
SYMATTR Value 100n
TEXT 48 -888 Left 6 ;Manico
TEXT -368 -384 Left 2 ;Tensione di riferimento 2.5V
TEXT -592 -424 Left 2 ;l'Opamp LMC6484 necessita di un condensatore vicino, sull'alimentazione
TEXT -1040 64 Left 2 ;ADS1115
TEXT -1136 128 Left 2 ;VDD
TEXT -1136 160 Left 2 ;GND
TEXT -1128 192 Left 2 ;SCL
TEXT -1128 224 Left 2 ;SDA
TEXT -1136 256 Left 2 ;ADDR
TEXT -1136 288 Left 2 ;ALRT
TEXT -1120 320 Left 2 ;A0
TEXT -1120 352 Left 2 ;A1
TEXT -1120 384 Left 2 ;A2
TEXT -1120 416 Left 2 ;A3
TEXT 856 -424 Left 2 ;AD623  guadagno pari a 500 sulla spira
TEXT -1120 -480 Left 2 ;GX 12 Connettore Manico
TEXT -144 80 Left 2 ;MCP602_0_2/2
RECTANGLE Normal -768 448 -1184 96
RECTANGLE Normal 1648 368 432 -400
RECTANGLE Normal -768 -48 -1200 -448
RECTANGLE Normal 1984 832 -1584 -720 1
RECTANGLE Normal 224 368 -592 -304
