Version 4
SHEET 1 3384 1668
WIRE 1296 48 1104 48
WIRE 1392 48 1296 48
WIRE 1728 48 1648 48
WIRE 1824 48 1728 48
WIRE 1904 48 1888 48
WIRE 1888 80 1888 48
WIRE 1952 80 1888 80
WIRE 2112 96 2112 48
WIRE 1296 128 1296 48
WIRE 1728 128 1728 48
WIRE 1824 128 1824 48
WIRE 1952 128 1952 80
WIRE 1824 256 1824 192
WIRE 1952 256 1952 208
WIRE 1952 256 1824 256
WIRE 2112 256 2112 176
WIRE 2192 256 2112 256
WIRE 2288 256 2272 256
WIRE 2448 256 2288 256
WIRE 1296 272 1296 192
WIRE 1520 272 1520 144
WIRE 1728 272 1728 192
WIRE 1824 272 1824 256
WIRE 2112 304 2112 256
WIRE 2224 336 2224 320
WIRE 2288 336 2288 256
WIRE 2288 336 2224 336
WIRE 2448 352 2448 256
WIRE 2224 368 2224 336
WIRE 2736 384 2544 384
WIRE 2544 432 2544 384
WIRE 2576 432 2544 432
WIRE 2720 448 2640 448
WIRE 2736 448 2736 384
WIRE 2736 448 2720 448
WIRE 2112 464 2112 368
WIRE 2448 464 2448 432
WIRE 2576 464 2448 464
WIRE 2224 480 2224 448
WIRE 2448 480 2448 464
WIRE 1280 496 1088 496
WIRE 1376 496 1280 496
WIRE 1712 496 1632 496
WIRE 1808 496 1712 496
WIRE 1888 496 1872 496
WIRE 1872 528 1872 496
WIRE 1936 528 1872 528
WIRE 2720 560 2720 448
WIRE 1280 576 1280 496
WIRE 1712 576 1712 496
WIRE 1808 576 1808 496
WIRE 1936 576 1936 528
WIRE 1088 608 1088 496
WIRE 2448 624 2448 560
WIRE 2720 688 2720 640
WIRE 1808 704 1808 640
WIRE 1936 704 1936 656
WIRE 1936 704 1808 704
WIRE 1088 720 1088 688
WIRE 1280 720 1280 640
WIRE 1504 720 1504 592
WIRE 1712 720 1712 640
WIRE 1808 720 1808 704
WIRE 2448 736 2448 704
WIRE 256 784 160 784
WIRE 256 832 256 784
WIRE 368 880 368 816
WIRE 256 992 256 912
WIRE 256 992 -16 992
WIRE 368 992 368 944
WIRE 368 992 256 992
WIRE 448 992 368 992
WIRE 640 992 528 992
WIRE 720 992 640 992
WIRE 832 992 800 992
WIRE 1328 1008 1328 976
WIRE -16 1024 -16 992
WIRE 720 1072 720 1056
WIRE 640 1088 640 992
WIRE 688 1088 640 1088
WIRE 832 1104 832 992
WIRE 832 1104 752 1104
WIRE 928 1104 832 1104
WIRE 1072 1104 1008 1104
WIRE 1328 1104 1328 1072
WIRE 1328 1104 1072 1104
WIRE -16 1120 -16 1104
WIRE 80 1120 -16 1120
WIRE 368 1120 160 1120
WIRE 448 1120 368 1120
WIRE 624 1120 528 1120
WIRE 688 1120 624 1120
WIRE 1328 1136 1328 1104
WIRE 720 1152 720 1136
WIRE 1072 1152 1072 1104
WIRE 368 1168 368 1120
WIRE 624 1184 624 1120
WIRE 1328 1232 1328 1200
WIRE 1072 1264 1072 1216
WIRE 368 1280 368 1232
WIRE 624 1312 624 1264
FLAG 160 784 0
FLAG 1088 720 0
FLAG 1280 720 0
FLAG 1712 720 0
FLAG 1504 720 0
FLAG 1808 720 0
FLAG 720 1152 0
FLAG 720 1056 12V
FLAG 624 1312 1V_REF
FLAG 1296 272 0
FLAG 1728 272 0
FLAG 1520 272 0
FLAG 1824 272 0
FLAG 1904 48 5V
FLAG 2608 480 0
FLAG 1888 496 12V
FLAG 2608 416 12V
FLAG 1104 48 12V
FLAG 1328 1232 0
FLAG 1328 976 5V
FLAG 2112 48 12V
FLAG 2448 736 0
FLAG 2224 480 0
FLAG 2112 464 0
FLAG 1072 1264 0
FLAG 368 1280 0
FLAG 368 816 0
FLAG 2736 448 1V_REF
FLAG 2720 688 0
SYMBOL res 544 1104 R90
WINDOW 0 0 56 VBottom 2
WINDOW 3 32 56 VTop 2
SYMATTR InstName R1
SYMATTR Value {uni(14.7k,0.001)}
SYMBOL res 640 1280 R180
WINDOW 0 36 76 Left 2
WINDOW 3 36 40 Left 2
SYMATTR InstName R2
SYMATTR Value {uni(45.3k,0.001)}
SYMBOL res 432 1008 R270
WINDOW 0 32 56 VTop 2
WINDOW 3 0 56 VBottom 2
SYMATTR InstName R3
SYMATTR Value {uni(14.7k,0.001)}
SYMBOL res 704 1008 R270
WINDOW 0 32 56 VTop 2
WINDOW 3 0 56 VBottom 2
SYMATTR InstName R4
SYMATTR Value {uni(45.3k,0.001)}
SYMBOL voltage -16 1120 R180
WINDOW 0 24 96 Left 2
WINDOW 3 24 16 Left 2
WINDOW 39 0 0 Left 0
SYMATTR InstName V1
SYMATTR Value SINE(37m 37.5m 20)
SYMATTR Value2 AC 60mv
SYMBOL voltage 256 928 R180
WINDOW 0 24 96 Left 2
WINDOW 3 24 16 Left 2
SYMATTR InstName V2
SYMATTR Value 15m
SYMBOL voltage 64 1120 R270
WINDOW 0 32 56 VTop 2
WINDOW 3 4 56 VTop 2
WINDOW 123 0 0 Left 0
WINDOW 39 0 0 Left 0
SYMATTR InstName V3
SYMATTR Value ""
SYMBOL voltage 1088 592 R0
WINDOW 123 0 0 Left 0
WINDOW 39 0 0 Left 0
SYMATTR InstName V4
SYMATTR Value 24V
SYMBOL ZZZ\\VolReg\\7812 1504 496 R0
SYMATTR InstName U1
SYMBOL cap 1264 576 R0
SYMATTR InstName C3
SYMATTR Value 10µ
SYMBOL cap 1696 576 R0
SYMATTR InstName C4
SYMATTR Value 10µ
SYMBOL cap 1792 576 R0
SYMATTR InstName C5
SYMATTR Value 100n
SYMBOL voltage 1936 560 R0
SYMATTR InstName V5
SYMATTR Value 12V
SYMBOL res 2432 336 R0
SYMATTR InstName R11
SYMATTR Value 12000
SYMBOL res 2432 464 R0
SYMATTR InstName R12
SYMATTR Value 2400
SYMBOL res 2432 608 R0
SYMATTR InstName R13
SYMATTR Value 5600
SYMBOL cap 1280 128 R0
SYMATTR InstName C6
SYMATTR Value 10µ
SYMBOL cap 1712 128 R0
SYMATTR InstName C7
SYMATTR Value 10µ
SYMBOL cap 1808 128 R0
SYMATTR InstName C8
SYMATTR Value 100n
SYMBOL voltage 1952 112 R0
SYMATTR InstName V6
SYMATTR Value 5V
SYMBOL ZZZ\\VolReg\\7805 1520 48 R0
SYMATTR InstName U3
SYMBOL diode 1344 1072 R180
WINDOW 0 24 64 Left 2
WINDOW 3 24 0 Left 2
SYMATTR InstName D1
SYMATTR Value 1N4149
SYMBOL diode 1344 1200 R180
WINDOW 0 24 64 Left 2
WINDOW 3 24 0 Left 2
SYMATTR InstName D2
SYMATTR Value 1N4149
SYMBOL res 2096 80 R0
SYMATTR InstName R14
SYMATTR Value 480
SYMBOL res 2208 352 R0
SYMATTR InstName R15
SYMATTR Value 1.5k
SYMBOL ZZZ\\zcontrol\\trimmer 2240 224 R90
WINDOW 3 -53 -2 Left 0
WINDOW 123 -24 16 Center 0
SYMATTR InstName U4
SYMBOL zener 2128 368 R180
WINDOW 0 24 64 Left 2
WINDOW 3 24 0 Left 2
SYMATTR InstName D3
SYMATTR Value RD2_4FB2
SYMBOL cap 1056 1152 R0
SYMATTR InstName C9
SYMATTR Value {uni(100n,0.05)}
SYMBOL res 1024 1088 R90
WINDOW 0 0 56 VBottom 2
WINDOW 3 32 56 VTop 2
SYMATTR InstName R25
SYMATTR Value {uni(12k,0.01)}
SYMBOL ValVol\\TI\\LMC6482A 720 1040 R0
SYMATTR InstName U7
SYMBOL cap 352 880 R0
SYMATTR InstName C11
SYMATTR Value {uni(100n,0.05)}
SYMBOL cap 352 1168 R0
SYMATTR InstName C12
SYMATTR Value {uni(100n,0.05)}
SYMBOL ValVol\\TI\\LMC6482A 2608 384 R0
SYMATTR InstName U6
SYMBOL voltage 2720 544 R0
SYMATTR InstName V7
SYMATTR Value 1V
TEXT 1576 1424 Left 2 !.inc TLC274_10V_Model2.model
TEXT 816 1448 Left 2 !.tran 0.1s
TEXT 816 1480 Left 2 ;.noise V(N002) V1 dec 100 1 100k
TEXT 1584 1480 Left 2 ;.lib LMC648x.LIB
TEXT 688 1632 Left 2 ;.function uni(nom,tol) flat(nom*tol)+nom
TEXT 816 1392 Left 2 !.step param run 0 99 1
TEXT 688 1592 Left 2 !.function uni(nom,tol) nom*(1+gauss(tol/3))
